Circuit: * C:\Users\Lingke\Desktop\FYP\Round 1 Prototype\PCB Related\BCC-Round1\LTSpice Related\ED.asc

.OP point found by inspection.

Date: Tue Aug 17 10:44:10 2021
Total elapsed time: 0.241 seconds.

tnom = 27
temp = 27
method = Gear
totiter = 39913
traniter = 39913
tranpoints = 15979
accept = 9930
rejected = 6049
matrix size = 6
fillins = 0
solver = Normal
Matrix Compiler1:       9 opcodes  0.1/[0.0]/0.0
Matrix Compiler2: 380 bytes object code size  0.1/0.1/[0.0]

