Circuit: * C:\Users\Lingke\Desktop\FYP\Round 1 Prototype\PCB Related\BCC-Round1\LTSpice Related\HPF.asc


Date: Tue Aug 17 10:42:26 2021
Total elapsed time: 0.049 seconds.

tnom = 27
temp = 27
method = Gear
totiter = 0
traniter = 0
tranpoints = 0
accept = 0
rejected = 0
matrix size = 3
fillins = 0
solver = Normal

